data/projects/lehighauto_3mg/circuit_plus_mgAll.dss
clear
set defaultbasefrequency=60
new object=circuit.lehigh basekv=115 pu=1.0001 phases=3 bus1=sourcebus angle=30 mvasc3=20000 mvasc1=21000
edit object=vsource.source basekv=115 bus1=sourcebus.1.2.3 pu=1.00 r1=0 x1=0.0001 r0=0 x0=0.0001
new object=vsource.secondsource basekv=4.16 bus1=680.1.2.3 pu=1.00 r1=0 x1=0.0001 r0=0 x0=0.0001
new object=transformer.sub phases=3 windings=2 xhl=0.008 buses=[sourcebus.1.2.3,650.1.2.3] conns=[delta,wye] kvs=[115,4.16] kvas=[5000,5000] %rs=[0.0005,0.0005]
new object=transformer.reg1 phases=1 bank=reg1 xhl=0.01 kvas=[1666,1666] buses=[650.1,rg60.1] kvs=[2.4,2.4] %loadloss=0.01
new object=regcontrol.reg1 transformer=reg1 winding=2 vreg=121 band=2 ptratio=20 ctprim=700 r=3 x=9
new object=transformer.reg2 phases=1 bank=reg1 xhl=0.01 kvas=[1666,1666] buses=[650.2,rg60.2] kvs=[2.4,2.4] %loadloss=0.01
new object=regcontrol.reg2 transformer=reg2 winding=2 vreg=121 band=2 ptratio=20 ctprim=700 r=3 x=9
new object=transformer.reg3 phases=1 bank=reg1 xhl=0.01 kvas=[1666,1666] buses=[650.3,rg60.3] kvs=[2.4,2.4] %loadloss=0.01
new object=regcontrol.reg3 transformer=reg3 winding=2 vreg=121 band=2 ptratio=20 ctprim=700 r=3 x=9
new object=transformer.xfm1 phases=3 windings=2 xhl=2 buses=[633.1.2.3,634.1.2.3] conns=[wye,wye] kvs=[4.16,0.480] kvas=[500,500] %rs=[0.55,0.55] xht=1 xlt=1
new object=linecode.mtx601 nphases=3 basefreq=60 rmatrix=[0.3465|0.1560,0.3375|0.1580,0.1535,0.3414] xmatrix=[1.0179|0.5017,1.0478|0.4236,0.3849,1.0348] units=mi
new object=linecode.mtx602 nphases=3 basefreq=60 rmatrix=[0.7526|0.1580,0.7475|0.1560,0.1535,0.7436] xmatrix=[1.1814|0.4236,1.1983|0.5017,0.3849,1.2112] units=mi
new object=linecode.mtx603 nphases=2 basefreq=60 rmatrix=[1.3238|0.2066,1.3294] xmatrix=[1.3569|0.4591,1.3471] units=mi
new object=linecode.mtx604 nphases=2 basefreq=60 rmatrix=[1.3238|0.2066,1.3294] xmatrix=[1.3569|0.4591,1.3471] units=mi
new object=linecode.mtx605 nphases=1 basefreq=60 rmatrix=[1.3292] xmatrix=[1.3475] units=mi
new object=linecode.mtx606 nphases=3 units=mi rmatrix=[0.791721|0.318476,0.781649|0.28345,0.318476,0.791721] xmatrix=[0.438352|0.0276838,0.396697|-0.0184204,0.0276838,0.438352] cmatrix=[383.948|0,383.948|0,0,383.948]
new object=linecode.mtx607 nphases=1 basefreq=60 rmatrix=[1.3425] xmatrix=[0.5124] cmatrix=[236] units=mi
new object=loadshape.solar_633_shape npts=8760 interval=1 useactual=yes mult=[0.0,0.0,0.0,0.0,0.0,0.0,0.0,0.0,23.076155232079152,53.72048714175482,73.98585812841328,85.1391722805419,89.5230626184822,86.20980678325722,76.35342703875047,59.28574878421898,32.117962570062204,2.1455590510213027,0.0,0.0,0.0,0.0,0.0,0.0,0.0,0.0,0.0,0.0,0.0,0.0,0.0,0.0,8.524856844310333,28.54891276649502,48.95076082850589,60.400624382087834,70.05966202942491,82.40802200639756,50.10558747593763,54.42244585152409,27.625212325259287,0.9773260111188014,0.0,0.0,0.0,0.0,0.0,0.0,0.0,0.0,0.0,0.0,0.0,0.0,0.0,0.0,10.820299363154794,47.42055519189272,67.40224691386979,79.33152306220632,84.14951238835,81.11886330640876,40.706901970382795,45.793555401640624,22.28142428641218,0.8872350537152575,0.0,0.0,0.0,0.0,0.0,0.0,0.0,0.0,0.0,0.0,0.0,0.0,0.0,0.0,16.08713470921971,47.462383136401506,68.69676817084691,59.38924613409328,48.431129056339024,31.693516184437772,74.26551547535345,34.433246549763396,18.72336772467103,0.7188507642824434,0.0,0.0,0.0,0.0,0.0,0.0,0.0,0.0,0.0,0.0,0.0,0.0,0.0,0.0,10.513292975574268,35.71945584340863,45.146026645302655,59.48872156622636,57.663843423105774,47.73238788076272,48.51987937449549,37.03408668909189,17.925687372660484,1.4425278298543625,0.0,0.0,0.0,0.0,0.0,0.0,0.0,0.0,0.0,0.0,0.0,0.0,0.0,0.0,8.65838451331916,11.41044875971789,30.39819054391241,18.41046252440336,38.72034273406477,41.128130821814246,34.069128930257406,18.31554526571034,12.44729915340689,2.168618046071019,0.0,0.0,0.0,0.0,0.0,0.0,0.0,0.0,0.0,0.0,0.0,0.0,0.0,0.0,25.184712639881145,58.8677374669805,82.4750539687514,96.30240716309888,101.19600854277768,98.07071032999283,87.52845954668172,68.90805291618618,39.20645852505473,4.066158836383161,0.0,0.0,0.0,0.0,0.0,0.0,0.0,0.0,0.0,0.0,0.0,0.0,0.0,0.0,7.008325728017347,41.51396679712288,56.54843156953808,60.776807754817504,39.269468569667325,39.98268864911205,44.19122337353474,26.78945781863177,17.82889321902156,0.9247729526334008,0.0,0.0,0.0,0.0,0.0,0.0,0.0,0.0,0.0,0.0,0.0,0.0,0.0,0.0,0.6174984372034567,1.2325837237621755,4.363512621384739,16.385561005618946,21.361477635068255,15.255133992484009,6.523550576274467,3.2617752881372337,7.457708003637404,0.1520284906184802,0.0,0.0,0.0,0.0,0.0,0.0,0.0,0.0,0.0,0.0,0.0,0.0,0.0,0.0,0.4142575273466524,10.86051854056709,11.954748294030969,12.313503356548653,14.153396659236504,22.4744763379912,33.29048565555535,24.755439952967233,9.432737742430572,0.3997786234782257,0.0,0.0,0.0,0.0,0.0,0.0,0.0,0.0,0.0,0.0,0.0,0.0,0.0,0.0,22.42487268584937,55.15228985763257,78.14183979435057,91.8732032186074,97.13092221779218,94.49871112008208,84.37071786411764,66.96493039147343,38.70452319094927,4.708593163582242,0.0,0.0,0.0,0.0,0.0,0.0,0.0,0.0,0.0,0.0,0.0,0.0,0.0,0.0,23.31881093580001,55.48315962381106,77.52005131155649,90.83742533631604,84.21734873425207,79.4854284477707,83.72318910777963,66.01388090959732,38.346036256281,5.191759548228628,0.0,0.0,0.0,0.0,0.0,0.0,0.0,0.0,0.0,0.0,0.0,0.0,0.0,0.0,10.034684764367938,32.64349315491621,61.85494983731647,65.31433535047279,71.44025232606435,78.09035924726284,66.14767670645557,53.78725097625924,34.70968636251058,4.867592978285519,0.0,0.0,0.0,0.0,0.0,0.0,0.0,0.0,0.0,0.0,0.0,0.0,0.0,0.0,10.40845498645288,42.72054211949177,44.618619165502736,84.87131255897602,90.86209309846228,88.9487327650346,79.57632378872248,62.450998046566696,34.14661787873843,5.107299275662806,0.0,0.0,0.0,0.0,0.0,0.0,0.0,0.0,0.0,0.0,0.0,0.0,0.0,0.0,12.083449661750317,30.56737921689347,50.00235825391273,53.96823727461456,58.64840888615879,56.42911467654827,45.285184999149195,29.180085724018664,26.669068414244293,4.543962664041241,0.0,0.0,0.0,0.0,0.0,0.0,0.0,0.0,0.0,0.0,0.0,0.0,0.0,0.0,9.303231991162978,44.12124200483735,76.68912310621843,89.49249604364886,94.77944097841991,92.58615517020267,82.9445458330776,49.15078420416971,39.52767568865426,7.398451748916622,0.0,0.0,0.0,0.0,0.0,0.0,0.0,0.0,0.0,0.0,0.0,0.0,0.0,0.0,1.2266849110750389,29.113053761664837,27.288175618544244,27.948306383804734,40.692423066514365,65.58112256064102,33.17036437901729,24.178428821025488,3.149697847081635,0.0496036521418321,0.0,0.0,0.0,0.0,0.0,0.0,0.0,0.0,0.0,0.0,0.0,0.0,0.0,0.0,15.88818384495355,17.651660710558037,9.335407333092814,11.551752136359758,91.9190530808574,89.85527302390777,44.403312502422246,63.78144843536546,37.614851610925456,7.48371640503069,0.0,0.0,0.0,0.0,0.0,0.0,0.0,0.0,0.0,0.0,0.0,0.0,0.0,0.0,0.0,8.119447535994388,30.5714011346347,81.21217179800527,87.92957880940702,33.0497068467804,21.760988130697065,25.260056565566845,9.45391984253438,7.808955486371459,0.0,0.0,0.0,0.0,0.0,0.0,0.0,0.0,0.0,0.0,0.0,0.0,0.0,0.0,24.68250917792627,58.38886112792476,80.84966294559578,93.73213359860372,98.41471836079268,96.26701428697604,87.4161139777767,70.42485216032857,42.56583235037914,9.563852260794656,0.0,0.0,0.0,0.0,0.0,0.0,0.0,0.0,0.0,0.0,0.0,0.0,0.0,0.0,7.216124811314211,19.30869081994465,50.5185043640372,89.23911522595138,95.47255146915847,94.3305949584987,85.61322231830816,68.70802954052235,42.108942494975445,9.776745773230411,0.0,0.0,0.0,0.0,0.0,0.0,0.0,0.0,0.0,0.0,0.0,0.0,0.0,0.0,24.062061334379244,55.991261898453075,78.41425768935655,92.67249233771442,98.6603234708571,96.5724119074601,87.00132019473122,69.44806240490861,42.07757153659386,9.91858540557111,0.0,0.0,0.0,0.0,0.0,0.0,0.0,0.0,0.0,0.0,0.0,0.0,0.0,0.0,23.791520334319195,56.723250927356865,80.5225469693091,95.26743366435578,101.44402680348686,99.27862629160882,89.77429841338436,72.34866947988341,45.04923249166373,11.353069399943015,0.0,0.0,0.0,0.0,0.0,0.0,0.0,0.0,0.0,0.0,0.0,0.0,0.0,0.0,6.513361717996688,22.39671926166076,74.71168021678052,62.00751458363378,93.8474285738523,77.52997204198483,81.79910366037538,56.40042499666083,35.10624745179583,7.51857302545468,0.0,0.0,0.0,0.0,0.0,0.0,0.0,0.0,0.0,0.0,0.0,0.0,0.0,0.0,6.762184362254092,40.14758727650246,43.62386484417194,66.07769533775817,94.42122217160106,93.41601086414308,70.14573106908723,65.61571105321559,38.209827308778024,8.671790905789923,0.0,0.0,0.0,0.0,0.0,0.0,0.0,0.0,0.0,0.0,0.0,0.0,0.0,0.0,13.469670643227465,26.887324483668355,42.99456878159422,33.1564217308477,17.608492126802172,5.259595894130702,15.234488148079024,29.19617339498358,11.92659486984236,3.928341121783692,0.0,0.0,0.0,0.0,0.0,0.0,0.0,0.0,0.0,0.0,0.0,0.0,0.0,0.0,20.026737200678845,36.11548067699504,24.771527623932155,73.22517941962207,100.06960344738395,100.04842134728015,91.67049856444942,74.48082213843395,46.50141292409704,12.892123255586888,0.0,0.0,0.0,0.0,0.0,0.0,0.0,0.0,0.0,0.0,0.0,0.0,0.0,0.0,27.98664866627112,63.726750354084736,87.97408803240998,102.32536304451496,107.55385610811348,105.04525194898386,94.52981395061428,76.85643488425359,49.26312977307472,14.333578574043589,0.0,0.0,0.0,0.0,0.0,0.0,0.0,0.0,0.0,0.0,0.0,0.0,0.0,0.0,14.24321948879063,59.66756284178637,66.08949296313244,73.8563523771457,74.24835529299088,77.72221971001562,66.65765587604349,48.222525589493905,29.098842985645824,12.403862441801612,0.0,0.0,0.0,0.0,0.0,0.0,0.0,0.0,0.0,0.0,0.0,0.0,0.0,0.0,2.8241906378914496,13.629474841478988,16.75638182136032,47.044908074861866,50.191656515599945,26.4939809285761,20.913972254394103,11.657126381179973,24.706908812223062,5.718362644480296,0.0,0.0,0.0,0.0,0.0,0.0,0.0,0.0,0.0,0.0,0.0,0.0,0.0,0.0,4.484438281471044,29.089190383066875,57.9290218661775,54.472049503665936,46.58935885870527,56.76615138326331,52.61901793635674,44.33386738942368,13.650120685883968,1.069025735618837,0.0,0.0,0.0,0.0,0.0,0.0,0.0,0.0,0.0,0.0,0.0,0.0,0.0,0.0,22.699167475801232,53.03702925359519,16.559575979889484,24.382205986581127,36.44420542037821,49.396389314234135,38.36453707789066,67.50547613589468,43.23481133467033,12.917327273431926,0.0,0.0,0.0,0.0,0.0,0.0,0.0,0.0,0.0,0.0,0.0,0.0,0.0,0.0,6.997600614040734,20.22407929784851,22.758423730522015,31.19882030226653,68.52087630163047,60.173520093633066,56.04193806199257,29.161584902409007,18.083882803815516,12.504142257482934,0.0,0.0,0.0,0.0,0.0,0.0,0.0,0.0,0.0,0.0,0.0,0.0,0.0,0.0,24.08699722437487,54.30875964337201,10.735034707040723,18.472936313317128,19.16577867620629,21.212934806492168,23.505159791143647,16.786412140494836,4.515272984153803,3.841467698573132,0.0,0.0,0.0,0.0,0.0,0.0,0.0,0.0,0.0,0.0,0.0,0.0,0.0,0.0,24.112201242219907,13.928437393577058,35.72428214469811,56.53019887577785,95.46584827292313,94.35150893075308,85.40274195651715,67.98891064839049,42.74494175378855,13.224869916711286,0.0,0.0,0.0,0.0,0.0,0.0,0.0,0.0,0.0,0.0,0.0,0.0,0.0,0.0,6.491643362194045,2.4531016943006616,74.18883091042069,88.18430026635157,94.4129102082692,46.32069475359112,85.75667071774534,69.94946148331522,45.69086243531457,14.652918842697224,0.0,0.0,0.0,0.0,0.0,0.0,0.0,0.0,0.0,0.0,0.0,0.0,0.0,0.0,9.623376643364857,37.25877782690193,51.25451531068222,50.30212518955904,18.54801211115342,18.08441905951435,29.15166417198064,0.5182911329197923,6.6482300262525875,1.2175685641949183,0.0,0.0,0.0,0.0,0.0,0.0,0.0,0.0,0.0,0.0,0.0,0.0,0.0,0.0,25.124115745913286,57.34530753800038,79.92944816640244,94.09571496241088,100.63481695395144,99.27916254730764,89.96895923205987,73.7477605981325,47.93214312857712,15.875313708181617,0.0,0.0,0.0,0.0,0.0,0.0,0.0,0.0,0.0,0.0,0.0,0.0,0.0,0.0,1.9908492819086696,13.104748640173227,53.179137013785315,63.31383346598516,77.88175578041772,49.373062191335,64.5949483304915,72.47120390706621,48.179625133587464,16.476724474420152,0.0,0.0,0.0,0.0,0.0,0.0,0.0,0.0,0.0,0.0,0.0,0.0,0.0,0.0,27.74345670685144,28.445147288771302,37.43306092902188,93.96406418834798,99.9122123997772,62.02252974320104,88.9591897511618,73.38900553561481,49.24972338060396,17.13015204344526,0.0,0.0,0.0,0.0,0.0,0.0,0.0,0.0,0.0,0.0,0.0,0.0,0.0,0.249895155655068,27.02621470966549,58.10598624679161,79.25564288082178,92.40999517313683,97.36821536452472,96.60673227218524,86.6610659538232,69.69688504916601,44.64355505549837,14.846507149975077,0.0,0.0,0.0,0.0,0.0,0.0,0.0,0.0,0.0,0.0,0.0,0.0,0.0,0.242119448022024,9.286071808800395,20.426783952006488,27.157597355878988,41.74750615396361,95.68249557525068,94.22093066808782,85.63547692980964,70.15860120585917,25.20053218299665,9.42871582468934,0.0,0.0,0.0,0.0,0.0,0.0,0.0,0.0,0.0,0.0,0.0,0.0,0.0,0.0,0.0,1.1320357802314347,5.273270414450883,8.04732114450167,17.544945826490746,21.221783025522875,13.711790091249489,11.691446745905132,9.12573135485004,3.701773089027756,0.0,0.0,0.0,0.0,0.0,0.0,0.0,0.0,0.0,0.0,0.0,0.0,0.0,0.2801936026389979,0.318535885105387,15.622737274032394,29.94907639614177,76.27647434596828,109.0918374523597,108.47541152655393,98.83460657297704,81.47198768408873,54.84823287639561,20.042288615944933,0.0,0.0,0.0,0.0,0.0,0.0,0.0,0.0,0.0,0.0,0.0,0.0,0.0,0.9419331349959806,31.631578651222835,64.29008696570631,85.77543966720442,99.86609440967774,106.43093667476217,104.90502108373964,95.83908223930922,60.00942584979089,52.092682967954474,18.81077740358042,0.0,0.0,0.0,0.0,0.0,0.0,0.0,0.0,0.0,0.0,0.0,0.0,0.0,1.0891353243249853,32.611049685136955,66.70431012184174,89.47399522203919,103.6748505106222,109.76162082019914,107.61364861853308,97.8545992833641,80.18926405248588,54.54873406859871,20.62975673401388,0.0,0.0,0.0,0.0,0.0,0.0,0.0,0.0,0.0,0.0,0.0,0.0,0.0,1.2569833580589689,32.356060100343,64.35363326601772,85.45744003779788,98.48094593959826,103.9689867614308,102.08860615348124,93.30071588889447,77.11276510829461,52.16775876579076,19.78783528684981,0.0,0.0,0.0,0.0,0.0,0.0,0.0,0.0,0.0,0.0,0.0,0.0,0.0,1.104686739591073,30.35958013359661,61.978824903746336,83.14805487078381,96.70647583216774,102.47819591868168,100.41763339592504,92.16385380737356,75.04335436650727,49.761579445137784,16.77917268856062,0.0,0.0,0.0,0.0,0.0,0.0,0.0,0.0,0.0,0.0,0.0,0.0,0.0,0.8888438208117494,27.281740550158275,56.732367274236985,47.42162770329038,53.14535290475899,68.0344923827911,95.24276590220956,76.28934448274022,55.57405496476285,41.55204095173985,13.43964032409295,0.0,0.0,0.0,0.0,0.0,0.0,0.0,0.0,0.0,0.0,0.0,0.0,0.0,1.1955820805428627,29.53642763589161,60.31214219178077,81.32505362260913,94.2801869228086,99.28667012709126,99.56069678919371,90.0311648931242,56.17787888164613,49.06042511891675,18.69682306757891,0.0,0.0,0.0,0.0,0.0,0.0,0.0,0.0,0.0,0.0,0.0,0.0,0.0,1.5465614354275024,31.065024505408285,61.45677998093473,82.99334510167118,96.0066621451938,74.82670706417969,60.73337104321223,51.680838591252574,74.19687474590313,25.82580632783315,18.80970489218276,0.0,0.0,0.0,0.0,0.0,0.0,0.0,0.0,0.0,0.0,0.0,0.0,0.0,0.0,0.5987294877443851,2.5740273543869665,5.989439900239173,28.411631307594387,48.58047626846335,32.549380279771434,29.59032133362409,71.80168866707618,21.200332797569654,18.495459052668014,0.0,0.0,0.0,0.0,0.0,0.0,0.0,0.0,0.0,0.0,0.0,0.0,0.0,1.8945913839685733,32.62284731051123,64.34317627989054,85.41105391984901,98.38978247079706,103.08067919631787,100.7640545773696,92.35931900959734,76.55774046000494,52.86810870846355,14.039978578933823,0.0,0.0,0.0,0.0,0.0,0.0,0.0,0.0,0.0,0.0,0.0,0.0,0.0,0.0,0.0,8.303115112843873,26.191800842285044,39.38235039427117,17.624847925616507,11.002090045058374,15.149491619814375,17.473087562847443,7.56200973705996,6.632142355287669,0.0,0.0,0.0,0.0,0.0,0.0,0.0,0.0,0.0,0.0,0.0,0.0,0.0,2.101586083717192,2.9987418678608155,9.311543954494852,11.807277976852548,50.466487561250624,65.36474338616287,73.3817660836806,33.935601261248586,30.830680765019306,48.92582493851027,11.665706472361263,0.0,0.0,0.0,0.0,0.0,0.0,0.0,0.0,0.0,0.0,0.0,0.0,0.0,2.606470824166219,31.673942851430457,52.14255474794573,81.86130932143975,94.58317139264793,99.32179487536466,97.71436841811988,90.09015301999555,19.323705979511907,50.87806381010312,20.24928331569355,0.0,0.0,0.0,0.0,0.0,0.0,0.0,0.0,0.0,0.0,0.0,0.0,0.0,0.0,2.6340879926559957,11.912384093823349,15.299911343336362,21.08664658941756,22.95817897833642,14.607873363995449,29.156222345420694,18.26647786926734,17.228286836331264,8.41143876400766,0.0,0.0,0.0,0.0,0.0,0.0,0.0,0.0,0.0,0.0,0.0,0.0,0.0,3.796958475570191,27.9740466573486,53.78403344206625,95.08671549384988,109.03365370903656,99.5306664700592,89.02595358566623,76.93311944918635,61.14119350217291,36.643424412493786,9.368387058570896,0.0,0.0,0.0,0.0,0.0,0.0,0.0,0.0,0.0,0.0,0.0,0.0,0.0,5.716753877383804,40.948485162705985,72.69777193982215,92.47354147344824,103.79336302006378,108.64808586157736,106.66876607719354,97.55054230212714,81.83530092004645,58.166046885060645,24.58249749009436,0.0,0.0,0.0,0.0,0.0,0.0,0.0,0.0,0.0,0.0,0.0,0.0,0.0,0.8017022697517739,8.477398214963825,21.883790685729277,33.01163269216343,25.509951721221917,30.457178670783783,79.24974406813465,44.665541539150425,66.57346373132707,52.76300259149275,21.834723289286273,0.0782933320292702,0.0,0.0,0.0,0.0,0.0,0.0,0.0,0.0,0.0,0.0,0.0,0.0,6.4894983393987244,39.49335532392911,71.3498932408114,92.10540193620103,103.89766475348634,109.1776383641726,107.07524789690716,95.02182855429136,76.97333862659866,52.71018140515794,19.56850670602808,0.0343203647251595,0.0,0.0,0.0,0.0,0.0,0.0,0.0,0.0,0.0,0.0,0.0,0.0,6.741806645698529,42.61489974682214,74.56823181734333,95.58007073677402,107.7345742786194,112.19809858783606,110.06889533562908,99.56686372973029,82.04846256033163,57.09514425449589,24.397757401847212,0.2069946997486185,0.0,0.0,0.0,0.0,0.0,0.0,0.0,0.0,0.0,0.0,0.0,0.0,7.374052114619828,41.44103602208191,73.27639183886038,94.36464719537445,106.9779174875694,112.03293183259623,109.13849169815796,99.99962207868658,83.76448079658961,59.285480656369565,25.909998472549553,0.4684193529285449,0.0,0.0,0.0,0.0,0.0,0.0,0.0,0.0,0.0,0.0,0.0,0.0,4.444755359757578,37.79905544347377,67.83393275142843,51.44408170021885,51.41834142667498,81.90555041659326,97.2400502525042,83.68216554681912,73.35227202024492,56.16769002336835,24.447092926139632,0.3667988980001427,0.0,0.0,0.0,0.0,0.0,0.0,0.0,0.0,0.0,0.0,0.0,0.0,2.8872006825040475,24.67929164373329,25.56062788476141,22.35113752726016,23.941403802142357,15.738300377130397,37.062776368979335,12.224753038392183,18.68877923209645,8.025334660849614,1.0518655532562573,0.0,0.0,0.0,0.0,0.0,0.0,0.0,0.0,0.0,0.0,0.0,0.0,0.0,7.416952570526277,31.022928433050083,71.17212447664903,94.90117102205448,100.61417110954646,111.9693855322848,95.44761557916289,88.23524455774047,69.2815550104217,48.54776467083468,11.59331195301913,0.0,0.0,0.0,0.0,0.0,0.0,0.0,0.0,0.0,0.0,0.0,0.0,0.0,6.048964282809371,44.49742537756702,76.32446923101361,98.00126521699428,111.54815668085334,117.07373540160404,114.9064579947801,104.95435660803206,87.97167488176522,62.97545612002305,26.137102761004325,0.2965494014533317,0.0,0.0,0.0,0.0,0.0,0.0,0.0,0.0,0.0,0.0,0.0,0.0,6.842890844928101,44.38454355296317,74.41137702543539,93.23636520503482,104.37949049888564,108.1075401171561,106.6499971277345,97.95863288893725,80.82901710119081,58.87363627966764,26.339807415162294,0.6499419069827089,0.0,0.0,0.0,0.0,0.0,0.0,0.0,0.0,0.0,0.0,0.0,0.0,6.487353316603402,37.04722495371324,51.25344279928456,69.39926313631501,71.32522547866517,73.24019457918932,69.55987171811478,54.52192128365717,54.73990922523183,47.737482309901615,19.12904516083639,0.4239101299256035,0.0,0.0,0.0,0.0,0.0,0.0,0.0,0.0,0.0,0.0,0.0,0.0,5.263349684022515,21.702000003825695,38.36829086778248,86.01407345318405,81.58781891503614,68.04119557902646,51.28052371207551,54.23582886833105,37.749451791331936,25.04045985689571,11.967618430802904,0.0,0.0,0.0,0.0,0.0,0.0,0.0,0.0,0.0,0.0,0.0,0.0,0.0,3.3518662455407777,28.932603719008338,59.974569229366914,53.83310083850925,112.51502570584496,115.6985076619529,117.11958526385403,106.8902396808106,89.3112416174441,63.16824004375264,28.338432404704008,0.9322805324170294,0.0,0.0,0.0,0.0,0.0,0.0,0.0,0.0,0.0,0.0,0.0,0.0,9.154957290436313,47.68841491345861,78.31505038507287,98.34768639843884,109.46265826810108,113.82751152873288,111.32614682153748,99.5762482044598,84.1934853556541,60.49902730282325,27.594913878275356,0.9234323133863244,0.0,0.0,0.0,0.0,0.0,0.0,0.0,0.0,0.0,0.0,0.0,0.0,12.643568739178898,48.49950165793992,79.46558698691396,99.8687756881719,111.95705165121169,116.44765687321927,114.03691937912625,103.60165160773184,85.72261848086961,60.81407752588623,27.764638806955247,0.9226279298380784,0.0,0.0,0.0,0.0,0.0,0.0,0.0,0.0,0.0,0.0,0.0,0.0,11.430022092725208,48.86066987110235,77.93430883890312,96.99900331587985,109.2285826555615,114.36912978455182,113.15638752164638,104.3770773482409,87.55634484302091,63.34815383071032,29.454916769669357,1.0934253699156302,0.0,0.0,0.0,0.0,0.0,0.0,0.0,0.0,0.0,0.0,0.0,0.0,11.500539717121434,45.77290955723564,73.28416754649342,91.31791044246827,101.98886259349877,106.74223310793332,104.83209030869868,85.91030797546033,30.246430181143342,27.03747607934093,6.5163111243402545,0.1686524172822293,0.0,0.0,0.0,0.0,0.0,0.0,0.0,0.0,0.0,0.0,0.0,0.0,2.0924697368370717,25.1839082563329,38.264257262209334,30.843282773941823,49.29530511500456,55.302173325455726,79.88172140920652,94.59845468006458,61.765395135611755,49.13791406739778,23.718857687127652,0.8875031815646728,0.0,0.0,0.0,0.0,0.0,0.0,0.0,0.0,0.0,0.0,0.0,0.0,1.2492076504259246,6.138518984514084,13.850144061547788,64.56062796576634,68.24872653447393,67.28748819432003,65.14702357243763,62.621795486644245,60.4263646556317,45.08328472853947,1.3787134016935192,0.0,0.0,0.0,0.0,0.0,0.0,0.0,0.0,0.0,0.0,0.0,0.0,0.0,12.029287836168422,14.488556471005635,10.296913801096112,25.64616066872489,51.37517284291911,7.460121154282143,6.919843537710295,25.750194274298032,12.231456234627569,31.851979743442214,15.15485417680268,1.1414202549609704,0.0,0.0,0.0,0.0,0.0,0.0,0.0,0.0,0.0,0.0,0.0,0.0,11.655517614083482,21.684303565764285,27.23642694360709,53.457185593628985,80.31742916450641,89.67509110910066,89.8871802379882,91.37877546428555,82.80029305009217,61.816339427000656,28.807656141180797,1.225344271827962,0.0,0.0,0.0,0.0,0.0,0.0,0.0,0.0,0.0,0.0,0.0,0.0,15.403676821060088,50.1892433649552,80.26916615161163,101.24668470631715,114.68552064686187,120.06067964409056,117.7215322857914,107.60560478305064,89.74989877908756,64.8365315228147,30.386392918538142,1.5406626227403657,0.0,0.0,0.0,0.0,0.0,0.0,0.0,0.0,0.0,0.0,0.0,0.0,16.792042825332558,53.375138471707906,83.19739039507623,103.33459626971415,115.40866145673496,119.54882357955675,116.57662636878804,106.01748353096376,88.57094062520844,64.07558468617405,30.260909085011775,1.4768481945795222,0.0,0.0,0.0,0.0,0.0,0.0,0.0,0.0,0.0,0.0,0.0,0.0,16.014740189877575,49.16043680674866,76.6620421934275,95.35296644831926,105.38872372408484,108.56174869406564,105.84507732378972,92.66230347943664,81.4910247613972,48.9301149841009,23.080177149820383,1.2918399784829586,0.0,0.0,0.0,0.0,0.0,0.0,0.0,0.0,0.0,0.0,0.0,0.0,9.456601121028534,32.82179817477739,73.3115165871338,86.08405482188145,106.06789156665386,110.13163725239224,106.90016041123896,97.28268258056124,82.13426347214453,60.20944922545471,28.693701805179295,1.4645143135064178,0.0,0.0,0.0,0.0,0.0,0.0,0.0,0.0,0.0,0.0,0.0,0.0,9.67110340056078,27.4187538812095,30.569524239688793,42.244883314629014,50.125697064643774,50.29944391106489,26.087767236711905,37.89129142367264,27.458436802922968,11.519844922279336,20.774277644848727,1.3191890191233204,0.0,0.0,0.0,0.0,0.0,0.0,0.0,0.0,0.0,0.0,0.0,0.0,5.857252870477425,3.133342048267301,17.542532675846008,21.008621385237703,29.3715290085012,47.00308013035308,55.77327395687842,45.07953093864766,28.73070344839861,19.78971218179571,6.038507296682174,0.0,0.0,0.0,0.0,0.0,0.0,0.0,0.0,0.0,0.0,0.0,0.0,0.0,13.301554481644065,17.549503999930803,59.20262915090023,93.32940556878194,103.62900064837218,50.489010300601514,45.71687083670785,45.41335011116972,40.99862507054666,27.55791223505604,3.9709734498407263,1.651131296699473,0.0,0.0,0.0,0.0,0.0,0.0,0.0,0.0,0.0,0.0,0.0,0.0,17.206568480528627,50.96252408266895,77.40395195275966,94.85907494969626,105.39220938612728,109.50555872400751,106.50574434474906,97.68728750532895,81.74038366135345,59.54583279815183,29.071493945005464,2.3163564910988543,0.0,0.0,0.0,0.0,0.0,0.0,0.0,0.0,0.0,0.0,0.0,0.0,7.385581612144687,49.286456895973856,76.70333388223744,77.14547670592329,95.96268917788969,83.37944920482923,108.11129390704792,43.74505863210767,64.31850851774432,30.697689351709315,17.46075368177434,2.4689212374161653,0.0,0.0,0.0,0.0,0.0,0.0,0.0,0.0,0.0,0.0,0.0,0.0,0.580496793984144,2.4480072651617717,4.65496759369918,34.382570386223904,14.385863504679572,8.40795310196526,60.49178785088903,14.215602320300851,17.668016509372375,13.811533651231985,10.91039032055834,1.3655751370721687,0.0,0.0,0.0,0.0,0.0,0.0,0.0,0.0,0.0,0.0,0.0,0.0,9.98776239072026,32.43408530452286,65.16177060415548,85.7432643252746,110.20644492237912,114.94372776584882,111.43849239044248,102.01165346069904,85.55852423702746,62.57755439149072,30.952410808653855,2.982117941197066,0.0,0.0,0.0,0.0,0.0,0.0,0.0,0.0,0.0,0.0,0.0,0.0,1.032560348098355,1.0245165126158955,14.348325605761431,14.143744056657551,34.637559971017865,24.19103082994801,49.012966489570246,20.781248968933525,16.324964111651088,13.745574200275817,6.739929750752623,0.1815225540541642,0.0,0.0,0.0,0.0,0.0,0.0,0.0,0.0,0.0,0.0,0.0,0.0,18.262724079375527,27.668380909015152,75.1540911683158,94.2517653707706,106.93555328736178,112.49223483864466,72.20253980195207,69.93793198579036,86.25512038980843,51.53926708676128,31.04893683444337,2.964689630985072,0.0,0.0,0.0,0.0,0.0,0.0,0.0,0.0,0.0,0.0,0.0,0.0,22.51549989895174,58.16658314075948,85.63708569690614,105.00690966651749,115.65641158959474,118.4500356526528,114.75952393330051,104.41622401425556,87.44668055261005,64.02705354542988,31.96164403385308,3.103043601283371,0.0,0.0,0.0,0.0,0.0,0.0,0.0,0.0,0.0,0.0,0.0,0.0900909574035438,22.14923725665043,55.74806993903339,81.40012942044542,99.39204437191148,109.90909113737756,113.02446861973404,110.6804949601454,100.4768896506458,83.5982415299521,60.91730674791113,30.2456257975951,3.151574742027542,0.0,0.0,0.0,0.0,0.0,0.0,0.0,0.0,0.0,0.0,0.0,0.017428310211995,21.18049133671292,53.40275564019768,80.01176341617294,99.6776005315388,111.3462564102436,116.0942643676899,113.55107171598569,103.49734987430928,86.84097974078087,63.108447533333035,31.431287147709597,3.4596536410057324,0.0,0.0,0.0,0.0,0.0,0.0,0.0,0.0,0.0,0.0,0.0,0.2332712289913188,21.720232697585935,41.157893013099354,70.27148303046302,81.14648047489854,107.32594743611048,88.75755760840151,87.41316457143314,81.29421891992637,62.20807421499642,44.3638977085582,22.558132227008777,2.953428261309629,0.0,0.0,0.0,0.0,0.0,0.0,0.0,0.0,0.0,0.0,0.0,0.2249592656594442,21.77493077886666,54.27577991789393,80.07396907723731,97.59585590867832,108.3686966424866,112.9555597624343,111.21111997413831,101.9824275251128,55.66387779431698,62.33784809411344,30.980296104993048,3.598543867002862,0.0,0.0,0.0,0.0,0.0,0.0,0.0,0.0,0.0,0.0,0.0,0.3083470268276053,22.041449861185477,53.53735582060416,78.3697484663536,96.96200167266052,108.7486338051081,114.80698256264702,114.62358311364692,105.67401175586278,89.31070536174528,65.89322337736043,33.14703725611816,3.90447774318573,0.0,0.0,0.0,0.0,0.0,0.0,0.0,0.0,0.0,0.0,0.0,0.3850315917603837,25.165943690422072,59.426515905162006,85.41373519834318,103.86656192295418,114.87964520983856,118.71494596787514,114.92495881638976,104.46448702715028,87.2989421075822,63.23527200610648,31.77824458485301,4.007975093060039,0.0,0.0,0.0,0.0,0.0,0.0,0.0,0.0,0.0,0.0,0.0,0.386104103158045,16.770324469529918,38.098822379120094,63.506885517564186,101.40943831091226,112.22410698922934,115.43064794038702,111.97340745002602,101.78642606719018,86.09906998144871,63.100403697850574,32.236743207353186,4.128632625296928,0.0,0.0,0.0,0.0,0.0,0.0,0.0,0.0,0.0,0.0,0.0,0.5745979812970071,23.49711595566119,54.92733059197312,79.45459374508795,96.85019235945435,106.39044936950047,108.84033352960816,105.66730855962736,82.69733195591668,79.85571300781324,57.93894259660588,29.50961485095008,4.253043947425631,0.0,0.0,0.0,0.0,0.0,0.0,0.0,0.0,0.0,0.0,0.0,0.5247262013057598,7.715646994774932,37.94598950495336,25.094353554628185,59.42142147602313,76.18397023792,76.05634138159832,91.85497052484716,38.76619259631479,23.38825604879857,38.8136512256613,15.428344583206297,4.025671531121449,0.0,0.0,0.0,0.0,0.0,0.0,0.0,0.0,0.0,0.0,0.0,0.7073212667575852,23.10404052841835,53.12685208314932,49.55941104667864,64.52362632254703,72.36261212805302,45.389218604722345,50.99818508664119,27.316060914883433,20.192172083768092,4.649068781012042,3.5309756489502044,0.0879459346082213,0.0,0.0,0.0,0.0,0.0,0.0,0.0,0.0,0.0,0.0,0.0,0.7534392568570183,3.7095487966608,4.52063554114211,13.370195211094384,26.78436338949288,26.770688869172695,30.367087713380236,41.97568295381604,17.279499255569586,21.090668507158792,13.761125615541903,6.159432956768479,0.6440430942955723,0.0,0.0,0.0,0.0,0.0,0.0,0.0,0.0,0.0,0.0,0.0,1.0899397078732311,3.855410346742728,12.101950483359971,23.78240398743908,32.81160931649961,28.555884090579827,28.919197326537567,46.27216361284695,49.5044448375485,52.74825555977492,25.29625382523791,6.200456517729021,4.817184942595442,0.0,0.0,0.0,0.0,0.0,0.0,0.0,0.0,0.0,0.0,0.0,1.3221384254668886,16.296810687462482,24.370140233357436,33.897527106631614,34.905419692583756,53.32204915752367,64.56733116200172,67.84224471476031,78.52445823546624,81.58084759095134,58.48699592081077,29.51015110664891,5.000852519444928,0.0,0.0,0.0,0.0,0.0,0.0,0.0,0.0,0.0,0.0,0.0,1.836139512796036,26.346242483548263,58.3105677958955,82.99468574091824,100.70828398469122,111.62189183944254,115.1391929680726,112.87699830255562,103.4611526146382,86.97531179333794,63.86054615094297,32.965514702064,4.988518638371824,0.0,0.0,0.0,0.0,0.0,0.0,0.0,0.0,0.0,0.0,0.0,2.029459692224474,28.82079440580215,61.899727188168825,86.15403619057885,102.58008450145952,111.71171466899668,114.19967298372134,111.18591595629326,100.8825670868112,83.79424298787472,60.773053964925694,31.429142124914275,5.002729414390836,0.0,0.0,0.0,0.0,0.0,0.0,0.0,0.0,0.0,0.0,0.0,2.2166129311163596,28.716760800229007,60.9202561542547,83.9272344011847,100.78416416607575,109.73909808084824,111.36797476604625,106.88300022887636,98.45976383949446,83.85912992743322,61.91474234773607,32.426577724739225,5.189614525433306,0.0,0.0,0.0,0.0,0.0,0.0,0.0,0.0,0.0,0.0,0.0,2.604325801370896,26.95623334096809,56.88520014840371,79.37844543585398,83.86931878571099,104.8513955138566,92.00431773697146,104.73449177151151,80.20481546775197,52.32380917415048,59.1128063213461,30.223103058244213,5.439241553238959,0.0,0.0,0.0,0.0,0.0,0.0,0.0,0.0,0.0,0.0,0.0,1.975029738793166,15.63265800446076,42.39262175965685,41.59226012915215,51.369542158081394,71.83761779889784,110.61909368262928,106.54435475506484,53.9880787354713,45.056203815748525,39.74941742012073,16.872213052307735,3.776848886864043,0.0,0.0,0.0,0.0,0.0,0.0,0.0,0.0,0.0,0.0,0.0,3.0990216835421416,18.712374482845,55.60515779529503,68.88311702619055,82.54235405895464,13.784720866290453,24.30069512035887,27.657387667189123,6.618467834967487,25.69147427527608,13.014389554920267,17.20469158558272,5.335476075515234,0.0,0.0,0.0,0.0,0.0,0.0,0.0,0.0,0.0,0.0,0.0,3.0373522781766207,27.81129305275351,22.66779651741964,25.917506052333184,98.47504712691112,108.84944987648826,112.45469693972652,54.66751470588969,100.79998370919128,84.88016077800671,62.535190191283114,32.83493643939874,5.395000458085432,0.0,0.0,0.0,0.0,0.0,0.0,0.0,0.0,0.0,0.0,0.0,3.244615105774655,29.27124919281987,60.15582365557165,82.19888228385362,98.171526401373,107.37796423889704,110.2249457439888,107.5629724549936,98.49971488905732,83.30061961710113,61.28759130795367,32.14370284360608,5.615401550304817,0.0,0.0,0.0,0.0,0.0,0.0,0.0,0.0,0.0,0.0,0.0,2.54238826815596,16.264635345532643,39.63197742207682,78.42605531473082,80.9638854094467,84.56752370558846,107.27875693461336,92.32982494616164,94.98536316677088,80.06136706831478,58.8167931755916,30.965280945425793,5.777350771351664,0.0,0.0,0.0,0.0,0.0,0.0,0.0,0.0,0.0,0.0,0.0,3.7133025865526146,27.97109725100503,57.13965347749884,63.225887531376934,71.8124137810528,102.70315518434114,105.95206033570642,103.33888631530482,94.64564518156168,80.21714934882507,58.76316760570854,31.2229518087139,5.917045380897039,0.0,0.0,0.0,0.0,0.0,0.0,0.0,0.0,0.0,0.0,0.0,3.925123587590708,28.244319529559235,57.367025893803024,79.70824269063482,95.7618614186776,104.86855569621916,108.5842714334165,105.77214654874876,96.12866031667777,65.02502540095367,56.10092618886394,28.00917140562201,5.765821273826805,0.0,0.0,0.0,0.0,0.0,0.0,0.0,0.0,0.0,0.0,0.0,4.218723582700472,27.003423842465185,43.94481387992207,62.20887859854467,72.68087988530897,76.49365790399467,68.32916488929851,24.08297530663364,11.293008761673985,5.065739459003433,32.782651508762754,11.725767110630294,2.5568671720243867,0.0,0.0,0.0,0.0,0.0,0.0,0.0,0.0,0.0,0.0,0.0,4.314981480640568,27.795741637487424,56.09288235338147,77.47688272780061,92.4217927985111,80.7938923529174,101.42445347047952,81.62026238481539,58.364193365778554,77.83161587257707,57.69092433589672,30.831217020718135,6.1299388933327945,0.0,0.0,0.0,0.0,0.0,0.0,0.0,0.0,0.0,0.0,0.0,4.045512991978182,23.292266278707896,49.19985160061271,70.84688539530828,77.40904638189853,79.41169328918149,90.0550282717222,102.75275883648295,93.41574273629364,69.2185449658091,52.31925100071041,22.514427387554083,5.348614340136585,0.0,0.0,0.0,0.0,0.0,0.0,0.0,0.0,0.0,0.0,0.0,4.63834366703543,27.320619088323497,47.56641674197465,55.64135505496609,81.2682105185331,94.3080722191478,107.1811583974262,104.44089177640176,95.7723184048048,80.45471062340702,55.49442099348651,32.10670120038676,6.599430757659,0.0,0.0,0.0,0.0,0.0,0.0,0.0,0.0,0.0,0.0,0.0,4.895478274624712,26.73207845885689,38.19239899856603,67.84117220336266,77.73026354549808,72.96777668418336,83.87012316925923,103.1493199257682,78.36867595495593,80.02114789090248,59.59087827685359,32.42523708549215,6.655737606036216,0.0,0.0,0.0,0.0,0.0,0.0,0.0,0.0,0.0,0.0,0.0,5.0182808296569235,29.22379056347336,31.985239284601622,78.93308507797516,57.922586797791546,72.62081924703995,64.05949701520913,61.150041721203614,3.2558764754500977,13.140409644145464,0.6459199892414793,31.978267960516828,6.655201350337386,0.0,0.0,0.0,0.0,0.0,0.0,0.0,0.0,0.0,0.0,0.0,5.5027878535503865,11.468900630890428,44.1853245608476,62.35956644991608,42.99671380438954,106.4100227025078,110.08873679648585,108.5663068675057,100.2353064583226,85.60598286637394,32.93467999938123,34.94242133580307,7.260634034317153,0.0,0.0,0.0,0.0,0.0,0.0,0.0,0.0,0.0,0.0,0.0,5.683506024056305,33.26581789340914,65.11833389255018,89.57749257191352,107.16667949355777,117.47699968712466,120.96400236877076,117.21932882383656,107.21279748365724,90.19767228761113,67.35693330731861,36.55306532724083,7.337586727099346,0.0,0.0,0.0,0.0,0.0,0.0,0.0,0.0,0.0,0.0,0.0,5.882456888322465,35.02580909697123,66.59116016938849,89.23804271455373,105.63191568350454,114.26992248026816,116.88470526776624,114.61366238321855,103.5697443936514,87.08283106095347,64.01042961876614,34.52896819200466,7.735220327782249,0.0,0.0,0.0,0.0,0.0,0.0,0.0,0.0,0.0,0.0,0.0,6.434800258118,32.97275415399821,62.81216625972912,85.94060642244425,103.14744303082227,112.81237949084654,115.24027716730215,112.19166351945007,101.77194716332176,86.13633975251743,63.78332533031138,34.83865585807934,7.552357134481009,0.0,0.0,0.0,0.0,0.0,0.0,0.0,0.0,0.0,0.0,0.0,6.023224009265501,32.859067945846114,61.66431093638218,82.43832045338148,96.227599493112,103.90865799531235,107.6838981150799,106.28319822973434,98.42785662541404,84.2916201485401,63.16314561461376,34.97942297902238,7.852660325826155,0.0,0.0,0.0,0.0,0.0,0.0,0.0,0.0,0.0,0.0,0.0,6.354898158992238,32.5295388189147,60.873870036305846,82.60965414915785,98.65898283161002,107.61311236283429,110.66172601068634,107.60238724885764,99.10622008443475,83.51780317512753,62.51856626461936,34.6978887371363,7.962592744086432,0.0,0.0,0.0,0.0,0.0,0.0,0.0,0.0,0.0,0.0,0.0,5.71005068114842,23.951056404721307,7.192261432716249,49.05720758472376,53.42501025169915,42.809828693347065,86.63800695877349,77.12134519947593,35.82322132113236,52.0527319183916,32.95398520453914,18.67805411811984,5.582689952676149,0.0,0.0,0.0,0.0,0.0,0.0,0.0,0.0,0.0,0.0,0.0,6.374739619848971,29.73805977865192,59.432950973547975,79.95250716145216,94.4920079238467,102.28862952914506,104.50551058811082,101.8464867054592,93.25138036460208,78.86605311562134,58.72589783463981,32.48127580601995,8.019435848162477,0.0,0.0,0.0,0.0,0.0,0.0,0.0,0.0,0.0,0.0,0.0,6.8839144058886435,31.154579207113,58.139502227968535,78.69042937425431,94.40057632719608,103.13993545103864,61.52890637242745,103.25362165919076,94.96418106666704,80.30402277203562,59.64289507964016,32.97972547808301,7.901191466570326,0.0,0.0,0.0,0.0,0.0,0.0,0.0,0.0,0.0,0.0,0.0,6.559747835945535,30.660955836339415,57.93250752821991,78.83655905218565,94.17427642228958,73.58527512138683,65.17383635737916,70.23180010874955,31.533175730487415,12.068166374333645,47.88736577772477,13.385746626360472,8.227234931459343,0.0,0.0,0.0,0.0,0.0,0.0,0.0,0.0,0.0,0.0,0.0,6.914212852872573,34.34315559235986,63.98495747307168,85.99315948092965,101.44590369843274,110.48154409587924,112.95207410039193,109.77985351395937,100.29885275863406,84.73403110007536,63.26798360373515,35.29635009703127,8.373364609390684,0.0,0.0,0.0,0.0,0.0,0.0,0.0,0.0,0.0,0.0,0.0,5.8880875731601865,21.943851323998302,46.59740269418773,83.06279021466975,98.21737626362302,106.5014542991584,109.15189809062872,106.44112553303997,97.6462639443684,83.1056906705762,62.360102705614906,34.88584635957644,8.349769358642137,0.0,0.0,0.0,0.0,0.0,0.0,0.0,0.0,0.0,0.0,0.0,6.636432400878314,26.97795169677073,62.08098161437357,83.2984745943058,85.03969684840882,105.1037038201564,107.10340132109576,103.69978640061784,84.07658161330903,59.13720595564289,42.202519114421385,27.67213469890697,7.847834024536678,0.0,0.0,0.0,0.0,0.0,0.0,0.0,0.0,0.0,0.0,0.0,1.785731477105958,7.287446819258683,10.760238724885768,13.294315029709852,15.118925044981028,42.20278724227081,64.12518833831588,54.27014923305621,37.41348759601456,22.907502814796924,5.851890313489119,0.8993008069389464,0.0,0.0,0.0,0.0,0.0,0.0,0.0,0.0,0.0,0.0,0.0,0.0,6.580929936049344,25.17988633859167,43.815576256503896,58.700157561095935,78.96016599076611,78.00831212534176,45.06478390692982,53.30783838150466,51.71033265468824,11.278529857805555,44.64730884539018,33.37253277747644,8.800492273509272,0.0,0.0,0.0,0.0,0.0,0.0,0.0,0.0,0.0,0.0,0.0,7.15794106799109,31.849298464948067,50.01308336788934,32.98160237302891,45.163186827665236,73.43217411937067,35.28374808810875,32.39091672076699,94.66039221327954,80.29597893655317,60.090132332464904,34.08173093917993,8.74981610996978,0.0,0.0,0.0,0.0,0.0,0.0,0.0,0.0,0.0,0.0,0.0,0.0,0.0,0.5531477533437825,9.286071808800395,23.481296412545685,38.17282566555871,52.95230085317996,69.18878277452399,19.77094323233664,6.466439344349007,4.435907140726872,5.242167583918706,1.4634418021087563,0.0,0.0,0.0,0.0,0.0,0.0,0.0,0.0,0.0,0.0,0.0,7.282620517969208,18.50484352739755,43.44690046355784,81.532852705906,96.35067017599364,104.9184274762104,86.13178157907738,68.32219356521372,67.640612572,73.00504645525209,61.857094860111786,35.0445780464303,8.942600033699385,0.0,0.0,0.0,0.0,0.0,0.0,0.0,0.0,0.0,0.0,0.0,7.708407542840718,34.168068106691656,62.47298453021876,84.44579366195391,100.0666540410404,109.54309662292567,113.07380414402644,109.66160913236725,99.95833038987664,75.82253389690815,63.72433720344,28.927241162020028,8.716836384491694,0.0,0.0,0.0,0.0,0.0,0.0,0.0,0.0,0.0,0.0,0.0,8.03874105332038,34.88236069753404,62.56602489396587,82.72173159021347,96.85635929999088,105.03801249704964,108.16706449972632,106.10542946557196,98.55092730829564,84.08757485513506,63.54174213798817,36.61848852249817,9.687459199375116,0.0,0.0,0.0,0.0,0.0,0.0,0.0,0.0,0.0,0.0,0.0,7.863385439802768,34.19219961313904,61.55920481941138,81.84039534918537,95.67284297267176,73.154125539527,106.64383018719792,102.54603226458376,94.4464261894461,80.44907993856931,60.684839902468056,35.04189676793615,9.673784679054933,0.0,0.0,0.0,0.0,0.0,0.0,0.0,0.0,0.0,0.0,0.0,7.895828909582019,32.70489443243231,59.660591517701576,80.70916395250215,95.80932004802412,104.10760885957852,104.967226744804,50.506438610813504,91.25490039785568,52.29780077275719,52.80831619804394,34.30749458838762,9.881047506652967,0.0,0.0,0.0,0.0,0.0,0.0,0.0,0.0,0.0,0.0,0.0,7.999326259456328,32.36061827378306,58.82671390601996,78.70866206801453,92.64809270341762,89.43404417247632,104.02019918066914,101.52285639121492,74.36740405813129,64.87058375969045,60.004867676350834,34.85796106323725,9.811334265804987,0.0,0.0,0.0,0.0,0.0,0.0,0.0,0.0,0.0,0.0,0.0,7.770613203905071,34.41662262309965,62.9363094540084,64.92367307387468,99.44191615190272,82.88770272900155,75.25892915743717,107.61177172358718,68.90215410349904,83.22286254077069,48.25336029217667,36.37770971372322,9.937354355030182,0.0,0.0,0.0,0.0,0.0,0.0,0.0,0.0,0.0,0.0,0.0,7.857218499266215,33.53743140486685,60.61190912742709,80.63596504961177,95.36476407369354,65.8996584457464,85.46012131629202,102.7675058682008,94.9491659070998,80.94323956504172,61.0025714040252,35.22636872833388,10.09689042543229,0.0,0.0,0.0,0.0,0.0,0.0,0.0,0.0,0.0,0.0,0.0,7.806810463576136,32.43810722226408,59.04845563748642,79.41383831197679,94.6687041766114,103.74027370587956,107.04200004357966,83.52370198781466,94.35794399913904,79.81066752911146,48.074250888767246,34.996583161384955,10.131478918006868,0.0,0.0,0.0,0.0,0.0,0.0,0.0,0.0,0.0,0.0,0.0,8.092902878902272,32.09919362060313,57.850728534148246,77.79354171796008,74.29179200459615,100.28169257627148,29.16185303025842,69.53439957242034,38.43103278454565,57.203467905659686,50.578565002306235,30.849985970177208,9.7169532628108,0.0,0.0,0.0,0.0,0.0,0.0,0.0,0.0,0.0,0.0,0.0,7.953208269356895,32.701945026088744,58.80311865527142,78.42900472107438,92.17377453780196,99.58911834123172,101.77650533676182,99.50090427877409,65.77497899576828,52.41684953789759,58.948980205353344,0.0973304093377571,0.0,0.0,0.0,0.0,0.0,0.0,0.0,0.0,0.0,0.0,0.0,0.0,8.19184205533652,31.85600166118345,56.9881612425792,76.08315416653984,89.90273165325428,97.38591180258614,99.49983176737643,89.75418882467821,73.97513301443668,67.04724564124392,57.236179503288355,28.717297055927837,7.748090464554184,0.0,0.0,0.0,0.0,0.0,0.0,0.0,0.0,0.0,0.0,0.0,8.024798405150783,32.25336713401693,57.98211118036174,77.50557240768806,89.84508416562997,97.84709170358046,59.897616536584714,82.7292391699971,89.775370924782,76.30918594359694,57.6941418700897,33.946862630924024,10.751122378005643,0.0,0.0,0.0,0.0,0.0,0.0,0.0,0.0,0.0,0.0,0.0,8.293998765963753,24.311420234335483,55.80330427601295,74.07648534151568,86.78789042659665,94.56574308243592,97.46956769160371,83.15395368347096,74.51380186391204,50.52654819951966,35.374911556909964,23.784817138083817,7.969027812472399,0.0,0.0,0.0,0.0,0.0,0.0,0.0,0.0,0.0,0.0,0.0,4.169656186257471,22.34845624876601,33.80180546439035,54.900785934881014,82.8517735971799,85.87732824998224,90.80176433234382,81.99805452464155,83.10274126423263,67.71729713693277,36.91718294674682,31.170935005927333,7.468164989764603,0.0,0.0,0.0,0.0,0.0,0.0,0.0,0.0,0.0,0.0,0.0,4.306937645158108,10.658618269957364,35.47706826753719,53.13543217433061,65.49076347538806,67.48268526869438,83.26254546248416,86.5031386505176,82.32543862877766,66.33134428330504,48.109107509191226,34.57374554285702,4.867592978285519,0.0,0.0,0.0,0.0,0.0,0.0,0.0,0.0,0.0,0.0,0.0,0.0,15.05484248897077,31.161818659047213,19.88784697468172,34.29650134656159,52.882319484482565,48.49789289084343,99.50707121931065,86.00254395565918,64.368648425585,24.96404341981235,18.95717520936118,6.784975229454395,0.0,0.0,0.0,0.0,0.0,0.0,0.0,0.0,0.0,0.0,0.0,7.220951112603688,31.920620472892537,39.76604134678448,76.78189534211613,54.12777334501667,53.655868330045735,52.17580260127322,72.8090449973295,71.94165140447096,16.17508064382793,16.628752965038636,25.981588608343444,11.069390135261616,0.0,0.0,0.0,0.0,0.0,0.0,0.0,0.0,0.0,0.0,0.0,2.69843867651567,10.62108037103922,15.51280485577212,42.23898450194187,75.25168970550297,55.10724437893081,81.67388795469844,28.43415404694527,29.508810467401833,20.441530983724327,11.531374419804193,10.527771879442692,1.8023554037697072,0.0,0.0,0.0,0.0,0.0,0.0,0.0,0.0,0.0,0.0,0.0,8.380872189174314,32.138608414467186,28.33146108061921,50.57320244531793,77.1996385315052,82.0672315097907,84.72947292663531,81.73823863855813,94.44347678310254,80.60593473047726,42.63045116208823,36.025121591742085,11.738905375251642,0.0,0.0,0.0,0.0,0.0,0.0,0.0,0.0,0.0,0.0,0.0,8.05187931794173,34.276123630006026,61.66377468068335,60.932590035327806,96.4252097181311,52.923343045443104,82.13774913418693,105.12729907090495,96.07610725819237,81.24836905767636,61.077110946162655,10.992705570328836,10.5068579071883,0.0,0.0,0.0,0.0,0.0,0.0,0.0,0.0,0.0,0.0,0.0,7.969832196020645,32.66923342846008,59.18680960778473,79.16635630696648,94.0697065610176,80.83947408731802,104.80769067440188,102.21650313765234,94.03860373048543,60.69636939999291,45.7581625255178,35.96479282562365,10.012698280715885,0.0,0.0,0.0,0.0,0.0,0.0,0.0,0.0,0.0,0.0,0.0,7.745677313909447,32.600860826859176,59.0007288802905,78.86819813841664,93.4650782605861,101.83066716234372,75.69356440133939,102.41491774621966,94.44883934009086,80.89578093569523,61.95844718719077,37.07082020446179,11.526816246364136,0.0,0.0,0.0,0.0,0.0,0.0,0.0,0.0,0.0,0.0,0.0,7.617244074039513,31.417880755238834,56.89163521678968,76.47220767604145,89.69734572060214,97.42050029516072,76.97521552154457,97.99322138151182,90.39984068607026,78.1579274653155,59.95016959507011,36.18144012795121,11.701099348484084,0.0,0.0,0.0,0.0,0.0,0.0,0.0,0.0,0.0,0.0,0.0,7.890734480443128,31.575003674996204,57.52763447560279,77.32646300427862,91.99841892428434,100.88766151595009,77.62944747411792,54.184348321243306,94.02332044306876,80.22841071850053,62.01019586212792,28.363904550398463,8.683588531164197,0.0,0.0,0.0,0.0,0.0,0.0,0.0,0.0,0.0,0.0,0.0,8.022921510204876,32.529002563215876,59.483627137087474,79.59857840022396,94.33032683064928,103.58904959880932,107.54447163338396,105.30292281227196,97.3556133556022,84.05968955879585,64.88774394205302,39.28582436848166,12.540875772852832,0.0,0.0,0.0,0.0,0.0,0.0,0.0,0.0,0.0,0.0,0.0,7.875719320875872,33.767753227514596,60.58911826022679,80.36596030525058,93.71524154409056,91.31254788547996,50.06268702003118,103.75207133125382,82.1318503214998,82.26618237405687,63.395344332207415,37.14723664154515,10.86909863174838,0.0,0.0,0.0,0.0,0.0,0.0,0.0,0.0,0.0,0.0,0.0,6.046551132164633,13.699188082326966,38.13904155653238,63.22883693772051,91.07900852863924,86.70128513123548,80.96308102589848,62.66496407040012,45.00096947876897,62.50757302279333,38.502086664640714,26.78892156293294,5.974424740671915,0.0,0.0,0.0,0.0,0.0,0.0,0.0,0.0,0.0,0.0,0.0,0.0,8.483565155500377,9.471884408445206,21.810323654989485,33.41382446628639,40.003066365667614,48.93735443603512,71.98267496543151,61.10285121970652,60.89880592630148,40.525111288479216,34.32492289859961,9.99124805276266,0.0,0.0,0.0,0.0,0.0,0.0,0.0,0.0,0.0,0.0,0.0,0.4381209059446148,8.32510159649593,19.64572752665969,59.925501832923906,68.97830241273299,63.64523948786248,37.942771970760376,85.83791345611819,95.01592974160424,64.5490984682415,58.61864669487368,36.17205565322168,12.611125269399643,0.0,0.0,0.0,0.0,0.0,0.0,0.0,0.0,0.0,0.0,0.0,7.429822707298213,30.892886426083656,56.67016161317264,77.4747377050053,93.54953853315187,77.16585442247886,82.10155187451585,92.47541836839416,88.03119926433541,74.22583255363999,48.328704217862374,24.495355939034383,9.526850617575343,0.0,0.0,0.0,0.0,0.0,0.0,0.0,0.0,0.0,0.0,0.0,6.926546733945678,9.334602949544568,30.002433838175417,38.02079717494023,75.13210468466373,52.70321008107314,58.88570203289133,73.33511183788234,79.39909128025897,50.71504207765862,42.487539018349864,32.01044330244667,11.610472135381707,0.0,0.0,0.0,0.0,0.0,0.0,0.0,0.0,0.0,0.0,0.0,7.187435131426773,14.19120268600406,58.11671136076822,43.66113461524066,43.50159854483856,71.01071151130103,67.88460891496793,65.3411481354143,40.2411638959484,65.5194531552755,9.086048433136575,36.12808268591756,10.717338268979317,0.0,0.0,0.0,0.0,0.0,0.0,0.0,0.0,0.0,0.0,0.0,4.538868234902351,5.917849764445285,19.95273391424022,46.20084160490248,45.0486962359649,84.22753759252984,83.87253631990397,102.32000048752668,86.25431600626017,75.3364181059182,52.13397465676445,34.46890755373563,12.588870657898172,0.0474586293465097,0.0,0.0,0.0,0.0,0.0,0.0,0.0,0.0,0.0,0.0,6.040652319477497,27.29300191983372,45.91635795667284,33.25589716298078,45.970519782254726,40.74578050854802,43.77723397403751,34.83624270743461,31.60557024982955,48.75583188198096,52.122445159239575,38.53426200657055,12.270066644943372,0.1166356144956594,0.0,0.0,0.0,0.0,0.0,0.0,0.0,0.0,0.0,0.0,0.0,10.637972425552384,23.139165276691756,42.61838540886453,38.697283739015056,56.822190103791115,67.21938372056854,62.57406872944833,65.75567379061037,57.21499740318454,28.538455780367833,24.48918899849783,0.2252273935088595,0.0,0.0,0.0,0.0,0.0,0.0,0.0,0.0,0.0,0.0,0.0,6.461076787360701,30.981100488541298,57.69494625363795,6.8463765069705,28.326366651480317,79.65434899290234,87.83117588867161,86.09960623714754,94.3096809862443,81.39905690904776,62.82637703574813,38.52192812549744,12.682983533042949,0.112881824603845,0.0,0.0,0.0,0.0,0.0,0.0,0.0,0.0,0.0,0.0,6.671020893452888,30.6641733705324,57.090854208905256,76.9795055671352,90.22931137384212,98.7530957067548,101.89072780061277,100.48841914817068,94.41559148676336,81.96641543841055,58.99107627771155,32.970609131202885,11.851787199855488,0.0439729673041106,0.0,0.0,0.0,0.0,0.0,0.0,0.0,0.0,0.0,0.0,5.738740361035859,30.708414465685927,57.32385731004716,77.1929353352698,91.6600415783222,100.2503216178899,103.74617251856668,100.147092395865,93.12911406526872,80.45068870566581,58.13789346087204,32.38689480302576,8.662674558909803,0.0,0.0,0.0,0.0,0.0,0.0,0.0,0.0,0.0,0.0,0.0,6.325135967707139,27.504554793022397,43.28387873111334,63.672320400653426,82.47398145735374,86.74901188843141,67.33253367302181,70.42458403247916,38.68253670729722,72.6548714839157,50.65203203304602,28.08317469206063,10.81037863272643,0.0,0.0,0.0,0.0,0.0,0.0,0.0,0.0,0.0,0.0,0.0,0.3193402686536331,26.62670421403668,39.641630024655775,55.24720711632559,87.85772054576371,96.48902414629192,99.99265075460175,98.21147745093586,91.72144285583832,64.14047162573256,42.74011545249907,1.5350319379026438,2.918035385186808,0.0,0.0,0.0,0.0,0.0,0.0,0.0,0.0,0.0,0.0,0.0,1.2213223540867324,21.0820884159775,44.43119779876144,66.24902903353455,79.72004031600909,79.64550077387163,87.78076785298153,86.17736331347798,68.11653950471216,58.71436833711496,50.92847184579321,32.22226430348476,11.87967249619468,0.0,0.0,0.0,0.0,0.0,0.0,0.0,0.0,0.0,0.0,0.0,6.616590940021581,28.23949322826976,56.06901897478351,75.42865408611708,87.93118757650352,96.27720314525384,86.95627471602944,59.67775170006416,73.6775111015857,68.59300269312318,47.34226185986345,31.255395278493157,8.139557124700536,0.0,0.0,0.0,0.0,0.0,0.0,0.0,0.0,0.0,0.0,0.0,6.901074588251223,28.503331032094422,53.60867782854864,60.31938164371499,41.36649647994445,81.88168703799532,86.82650083691244,71.21341616545901,82.56326803120903,70.5827794636342,45.418444540308606,14.242146977392968,10.62215288243688,0.0,0.0,0.0,0.0,0.0,0.0,0.0,0.0,0.0,0.0,0.0,6.435068385967416,28.851360980635494,54.60075087138528,74.40494195704942,89.09271742017063,97.59800093147363,65.9433632852011,98.48067781174883,92.49794110774504,80.23404140333822,62.15257175016746,38.26532977360699,12.8800575023632,0.0,0.0,0.0,0.0,0.0,0.0,0.0,0.0,0.0,0.0,0.0,5.55400027278871,29.320048461413453,55.67218975764886,75.82360640830584,89.77966097037266,98.3291855768292,84.65386087310017,70.90131534873957,29.870246808413672,66.27181990073484,55.28608565449081,25.615594093891545,10.228809327344624,0.0,0.0,0.0,0.0,0.0,0.0,0.0,0.0,0.0,0.0,0.0,5.036513523417164,28.83286015902584,29.946663245497035,59.16240997348793,87.67163981826948,74.32155419588126,59.8590061262689,16.59255570536757,63.62325300421043,71.29170949748827,61.45383057459116,32.7536937010259,12.310553950205083,0.0437048394546953,0.0,0.0,0.0,0.0,0.0,0.0,0.0,0.0,0.0,0.0,6.040116063778666,28.769313858714412,54.65142703492477,74.97256861426163,63.47417391993552,72.63717504585428,88.40550574211919,75.8458610198073,45.75038681788476,5.996947480022801,28.52585377144531,28.30625706277417,11.5297656527077,0.0,0.0,0.0,0.0,0.0,0.0,0.0,0.0,0.0,0.0,0.0,2.677792832110691,20.51392550306646,37.93311936818142,64.5598235822181,77.51254373177285,74.75565318408464,52.78874286503662,86.13794851961393,73.79361046038252,61.162375602276725,33.93721002834508,29.489773390093344,8.176290640070432,0.0,0.0,0.0,0.0,0.0,0.0,0.0,0.0,0.0,0.0,0.0,5.046434253845531,22.14467908321037,37.68563736317109,49.570672416354085,44.04187616141041,97.95648786614191,79.2805787708174,101.5692425091638,82.07634785667084,66.19969350924214,48.164073718321376,32.622579182661816,12.36659267073288,0.0,0.0,0.0,0.0,0.0,0.0,0.0,0.0,0.0,0.0,0.0,5.256378359937718,25.508074826276008,51.32744608572319,55.63143432453773,91.24042149398726,100.57877823342363,103.89498347499216,91.0326224106904,82.88099953276617,71.45124556789038,51.74331238016633,38.5018185367913,12.962909007832527,0.0,0.0,0.0,0.0,0.0,0.0,0.0,0.0,0.0,0.0,0.0,5.235196259833908,28.478663269948218,55.31799286857123,45.18249203282314,27.40776063938347,99.41054519352112,18.51127859578352,86.50233426696931,78.08821422446752,67.09899431618108,45.148707923796806,11.590094418826148,7.439743437726579,0.0,0.0,0.0,0.0,0.0,0.0,0.0,0.0,0.0,0.0,0.0,5.550246482896896,27.772950770287125,53.72853097723728,74.12019018097035,61.921713671820875,59.01413527276127,64.34183564064345,99.01881040552536,91.40666076062476,60.63389561107915,18.410730652252777,25.021690907436636,10.109760562204224,0.0,0.0,0.0,0.0,0.0,0.0,0.0,0.0,0.0,0.0,0.0,5.575718628591352,27.73299972072424,53.55934230425621,73.74212991329478,87.23405516802372,96.11418141280932,99.38400053642904,97.37491856076012,90.70577456225313,78.24104709863425,60.57383497281012,27.26431223994628,0.5333062924870496,0.0,0.0,0.0,0.0,0.0,0.0,0.0,0.0,0.0,0.0,0.0,5.699593695021225,17.810928653110736,32.24264202004033,48.45445617923815,67.46069878504233,57.98103866896408,79.69671319310994,100.325933671425,93.12777342602162,29.400486816238047,6.551972128312491,20.02351966648586,10.022350883294836,0.0,0.0,0.0,0.0,0.0,0.0,0.0,0.0,0.0,0.0,0.0,5.664737074597233,12.813829923557618,24.852502234455574,46.46307064163065,43.96277844583289,73.68877247126113,82.09431242258165,84.9536278087465,85.5105293519821,79.79645675309246,61.0323335953103,30.21103730502053,11.76598628804259,0.0,0.0,0.0,0.0,0.0,0.0,0.0,0.0,0.0,0.0,0.0,5.435487763347144,13.053268093085489,54.75680127974499,58.45508870673034,77.93135943255956,87.79229735050637,84.53856589785163,89.55094791482139,95.46531201722428,60.14188100740206,47.75839628215601,11.890933865870124,9.39385920426535,0.0,0.0,0.0,0.0,0.0,0.0,0.0,0.0,0.0,0.0,0.0,5.101668590825084,27.76571131835291,54.94046885659447,76.54621096248009,90.05985457301165,99.57383505381505,103.22895389704456,102.0210379354286,93.7753021823596,80.25012907430316,40.157239879081416,9.273469799877878,3.4709150106811753,0.0,0.0,0.0,0.0,0.0,0.0,0.0,0.0,0.0,0.0,0.0,4.436979652124533,23.309158333221063,50.68930180411475,50.343685006218415,63.26771547588573,98.7252104104156,102.3470814003176,99.73524801916308,91.99654202933844,79.20737986792702,61.68978308207663,37.656679555434245,11.911311582425688,0.0,0.0,0.0,0.0,0.0,0.0,0.0,0.0,0.0,0.0,0.0,4.8826081378527775,27.35252630240392,53.919974261719815,74.15209739505079,89.07957915554927,98.19136786222973,45.26480728259365,96.94832715234035,57.042859323859915,66.77670464118388,50.995503808147035,35.546513380535764,12.37812216825774,0.0,0.0,0.0,0.0,0.0,0.0,0.0,0.0,0.0,0.0,0.0,4.952589506550172,25.70917071333749,50.28442875149763,70.16101435650391,84.15943311877837,93.1221427411839,73.03641741363369,94.45071623503677,77.56429240671001,74.56957245659044,56.59562207103518,34.43994974599878,6.638041167974806,0.0,0.0,0.0,0.0,0.0,0.0,0.0,0.0,0.0,0.0,0.0,4.395687963314575,24.95224579443807,48.98374055398397,68.83619465254286,83.79987367271242,92.46362074301987,72.0770559684257,42.95944403332081,86.57821444835386,74.28696570330668,56.704750105747216,33.05185186957573,0.0,0.0,0.0,0.0,0.0,0.0,0.0,0.0,0.0,0.0,0.0,0.0,4.752566130886352,25.64964633076729,28.45855368124207,37.14187408455685,87.35390831671236,96.970045508143,100.32030298658728,98.57318191979712,90.99830204596525,77.75171377345131,59.114683216292015,30.535203874963635,9.418258838562144,0.0,0.0,0.0,0.0,0.0,0.0,0.0,0.0,0.0,0.0,0.0,3.237375653840441,16.788557163290157,17.757034955378252,50.48766966135444,71.09114986612562,31.953063942671793,17.5545984290697,38.760830039326486,70.63989069555966,28.717297055927837,2.306167632821073,13.424625164525692,5.158511694901129,0.0,0.0,0.0,0.0,0.0,0.0,0.0,0.0,0.0,0.0,0.0,4.6372711556377695,26.10760869756864,52.95230085317996,73.59760900245993,88.4020200800768,97.6411695152295,101.01180471022936,98.2136224737312,69.68910934153297,78.32684801044714,59.78124904993846,35.82322132113236,10.47816822730086,0.0,0.0,0.0,0.0,0.0,0.0,0.0,0.0,0.0,0.0,0.0,4.532165038666967,25.497349712299393,50.92605869514846,70.69324813759329,35.56608671354308,71.8352046482531,87.17908895889356,85.38209611211218,63.77394085558183,69.06142204605173,54.26398229251965,26.41193380665501,7.062487553599239,0.0,0.0,0.0,0.0,0.0,0.0,0.0,0.0,0.0,0.0,0.0,4.278784220969501,25.07746150011502,22.357840723495546,12.347555593424396,50.25413030451371,85.22229191386064,79.0947661711726,80.30375464418621,71.06621397612999,59.90458786066951,9.978109788141309,12.074869570569025,6.7651337685976625,0.0,0.0,0.0,0.0,0.0,0.0,0.0,0.0,0.0,0.0,0.0,4.07366641616679,25.27131793524229,51.480278959889915,72.40953450170069,87.9660441969275,97.49155417525576,83.60950289962756,65.4146151661541,76.92909753144514,81.25828978810472,62.389060513351765,35.382687264543,9.447752901997829,0.0,0.0,0.0,0.0,0.0,0.0,0.0,0.0,0.0,0.0,0.0,4.1197844062662226,24.897547713157348,51.31350343755359,72.19851788421084,20.28655308676228,71.12868776504375,101.71510405924572,39.378328476529944,67.1043568731694,55.50326921251721,56.59749896598109,29.715805167150453,8.665087709554541,0.0,0.0,0.0,0.0,0.0,0.0,0.0,0.0,0.0,0.0,0.0,4.024062764024957,24.96431154766176,51.7848721968257,73.25333284381068,49.37601159767857,18.662770830703167,32.7536937010259,32.29439069497748,54.83831214596724,59.88903644540343,56.32534919882455,34.646944445747394,10.647356900281922,0.0,0.0,0.0,0.0,0.0,0.0,0.0,0.0,0.0,0.0,0.0,2.829821322729172,7.515355491261696,18.37051147484048,63.22266999718396,31.615490980257917,68.61874296666704,70.21410367068813,76.29524329542735,11.485524557554175,14.325534738561128,7.319622161188521,14.0552618663505,5.657765750512436,0.0,0.0,0.0,0.0,0.0,0.0,0.0,0.0,0.0,0.0,0.0,3.669061491399088,21.632286762977717,24.29801384186472,6.033144739693869,69.71190020873327,53.03488423079988,88.52080071736779,90.50870059293288,65.53500457054159,63.34547255221617,50.985583077718665,33.3859391699472,10.253745217340246,0.0,0.0,0.0,0.0,0.0,0.0,0.0,0.0,0.0,0.0,0.0,1.881184991497808,12.223412399145108,42.79079161603858,39.054161906586835,60.83499149814063,76.73390045707079,31.519501210167235,28.241906378914496,36.21549236482696,64.87835946732349,61.09963368551354,35.71328890287208,10.670684023181051,0.0,0.0,0.0,0.0,0.0,0.0,0.0,0.0,0.0,0.0,0.0,3.3671495329574506,24.7039594058795,52.08303036537553,72.9074479180649,87.44962995895362,75.19243345078218,99.93527139482688,68.08409603493293,51.28722690831089,60.7853878459988,59.09913180102591,34.80701677184834,9.29170249363812,0.0,0.0,0.0,0.0,0.0,0.0,0.0,0.0,0.0,0.0,0.0,3.3631276152162206,24.765092555546182,52.21119547739604,73.64158196976405,89.02139541222616,74.18105520278763,73.49813357032684,45.63938188822682,31.063415738311793,37.2636041281914,50.82631513516598,34.43646408395638,10.133623940802188,0.0,0.0,0.0,0.0,0.0,0.0,0.0,0.0,0.0,0.0,0.0,3.398788619188457,24.134992109420217,50.85527294290283,72.28941322516263,88.53125770349497,97.67709864705115,69.50007920769517,98.8635643807139,62.95990470475695,69.84328285494
...